%mem=400MW
%nproc=7
#p Temperature=298.15 opt freq UB3LYP/aug-cc-pVDZ

1,2-(CH3)2-C2H5+-UB3LYP-aug-cc-pVDZ-Triplet

1 3
C          -0.09870        -0.14550         0.05600
C           0.41450         0.58040         1.31350
H           1.48450         0.57880         1.31450
H           0.05940         1.58980         1.31250
H           0.05630         0.07710         2.18710
C          -1.63870        -0.14550         0.05600
H          -1.99540         0.86330         0.05620
H          -1.99540        -0.64970        -0.81770
H          -1.99540        -0.65010         0.92960
C           0.41460         0.58050        -1.20140
H           0.05780         1.58930        -1.20140
H           1.48460         0.58070        -1.20140
H           0.05800         0.07600        -2.07510


nprocshared=7
