%mem=400MW
%nproc=7
#p Temperature=298.15 opt freq UB3LYP/aug-cc-pVDZ

1,2-(CH3)2-C2H5+-UB3LYP-aug-cc-pVDZ-Singlet

1  1
  C   -0.006491   -0.093942   -0.127036
  C   -0.297421   1.422430   -0.061583
  H   -1.295348   1.767275   -0.415636
  H   -0.252976   1.757198   1.087306
  H   0.530287   2.128669   -0.516946
  C   1.387105   -0.448348   0.002826
  H   1.597811   -0.676342   1.093059
  H   1.408058   -1.572944   -0.332133
  H   2.101071   0.173636   -0.434250
  C   -1.090345   -0.909443   0.033738
  H   -1.373796   -1.135019   1.062274
  H   -2.027946   -0.496592   -0.438117
  H   -0.846711   -1.890577   -0.403038

nprocshared=7
