%mem=400MW
%nproc=7
#p Temperature=298.15 opt freq RB3LYP/aug-cc-pVDZ

1,2-(CH3)2-C2H5+-RB3LYP-aug-cc-pVDZ-Singlet

1  1
  C   0.055154   -0.046810   -0.089955
  C   -0.181396   1.458060   -0.007429
  H   -1.288495   1.674934   -0.465235
  H   -0.374581   1.597281   1.165302
  H   0.629145   2.041065   -0.364604
  C   1.350934   -0.507511   -0.055870
  H   1.636886   -0.532395   1.085654
  H   1.497983   -1.618059   -0.383157
  H   2.047320   0.150523   -0.460046
  C   -1.049874   -1.010388   -0.051065
  H   -1.389484   -1.102123   1.075397
  H   -2.104693   -0.506181   -0.363348
  H   -0.919389   -1.853176   -0.509154

nprocshared=7
