%chk=1,2,4-Triazine-5-N2+-RB3LYP-aug-cc-pVDZ-Singlet.chk
%mem=400MW
%nproc=7
#p Temperature=298.15 opt freq RB3LYP/aug-cc-pVDZ

1,2,4-Triazine-5-N2+-RB3LYP-aug-cc-pVDZ-Singlet

1 1
C           0.04280         0.83030         0.00700
C          -0.64710         1.70110         0.86750
N           1.42610         0.76990         0.13610
N           2.55780         0.72140         0.24060
H          -0.13470         2.29570         1.59470
C          -1.93230         0.08680        -1.08920
H          -2.40870        -0.55830        -1.79760
N          -0.54910         0.01550        -0.97270
N          -2.63870         0.94750        -0.24310
N          -2.02890         1.75070         0.72590


nprocshared=7
