%chk=1,2,4-Triazine-5-N2-UB3LYP-aug-cc-pVDZ-Duplet.chk
%mem=400MW
%nproc=7
#p Temperature=298.15 opt freq UB3LYP/aug-cc-pVDZ 

1,2,4-Triazine-5-N2-UB3LYP-aug-cc-pVDZ-Duplet

0  2
  C   -0.708709   -0.236215   -0.059494
  C   0.266515   1.155143   -0.185943
  N   -2.002910   0.049644   -0.083367
  N   -3.215770   -0.124251   0.172351
  H   -0.461156   2.235884   -0.052234
  C   1.530026   -1.269998   0.182609
  H   2.154595   -2.066293   0.146165
  N   -0.000862   -1.398282   -0.048928
  N   2.059805   -0.137484   -0.078290
  N   1.327349   1.281654   0.112554

nprocshared=7
