%chk=1,2,3-Triazine-4-N2-UB3LYP-aug-cc-pVDZ-Duplet.chk
%mem=400MW
%nproc=7
#p Temperature=298.15 opt freq UB3LYP/aug-cc-pVDZ 

1,2,3-Triazine-4-N2-UB3LYP-aug-cc-pVDZ-Duplet

0  2
  C   -0.385159   0.234376   -0.016208
  C   0.324194   1.276486   -0.142140
  C   1.458500   0.938308   0.198179
  N   -1.702846   -0.115272   0.150586
  N   -2.966548   0.053954   -0.082612
  H   2.094908   1.979532   -0.123831
  H   -0.412291   2.285076   0.144102
  N   -0.084958   -1.023767   0.172011
  N   1.343014   -1.299096   0.141929
  N   2.043770   -0.000280   -0.000045

nprocshared=7
