%chk=1,2,4-Triazine-3-N2-UB3LYP-aug-cc-pVDZ-Duplet.chk
%mem=400MW
%nproc=7
#p Temperature=298.15 opt freq UB3LYP/aug-cc-pVDZ 

1,2,4-Triazine-3-N2-UB3LYP-aug-cc-pVDZ-Duplet

0  2
  C   0.506063   0.200905   -0.117818
  N   1.657801   -0.066962   0.178440
  N   3.008211   -0.112384   0.059141
  C   -2.260123   0.002994   0.110650
  H   -3.337900   -0.063520   -0.004938
  C   -1.559361   0.951787   -0.072062
  H   -1.993463   2.269288   0.025952
  N   -0.021223   1.419353   0.147821
  N   -0.051371   -1.399614   0.125537
  N   -1.540566   -1.340937   -0.070301

nprocshared=7
