%chk=1,3,5-Triazine-2+-RB3LYP-aug-cc-pVDZ-Singlet.chk
%mem=400MW
%nproc=7
#p Temperature=298.15 opt freq RB3LYP/aug-cc-pVDZ

1,3,5-Triazine-2+-RB3LYP-aug-cc-pVDZ-Singlet

1 1
C          -1.93230         0.08680        -1.08920
C           0.04280         0.83030         0.00700
C          -2.02890         1.75070         0.72590
H          -2.45540        -0.51400        -1.82260
H          -2.61650         2.39290         1.34810
N          -2.63870         0.94750        -0.24310
N          -0.54910         0.01550        -0.97270
N          -0.64710         1.70110         0.86750


nprocshared=7
