%chk=1-CH3-C2H5-N2+-RB3LYP-aug-cc-pVDZ-Singlet.chk
%mem=400MW
%nproc=7
#p Temperature=298.15 opt freq RB3LYP/aug-cc-pVDZ

1-CH3-C2H5-N2+-RB3LYP-aug-cc-pVDZ-Singlet

1 1
C          -0.09870        -0.14550         0.05600
H           0.25790         0.35890        -0.81760
N           0.39130        -1.53140         0.05600
N           0.80190        -2.69300         0.05600
C           0.41450         0.58040         1.31350
H           1.48450         0.57880         1.31450
H           0.05940         1.58980         1.31250
H           0.05630         0.07710         2.18710
C          -1.63870        -0.14550         0.05600
H          -1.99540         0.86330         0.05620
H          -1.99540        -0.64970        -0.81770
H          -1.99540        -0.65010         0.92960


nprocshared=7
