%chk=1-CH3-C2H5+-RB3LYP-aug-cc-pVDZ-Singlet.chk
%mem=400MW
%nproc=7
#p Temperature=298.15 opt freq RB3LYP/aug-cc-pVDZ

1-CH3-C2H5+-RB3LYP-aug-cc-pVDZ-Singlet

1  1
  C   -0.123142   -0.410902   -0.172955
  H   0.031046   -1.350127   0.049709
  C   -1.320509   0.193070   0.070099
  H   -1.915541   -0.287408   -0.655750
  H   -1.740627   -0.311897   1.046977
  H   -1.470335   1.311695   0.050852
  C   1.396320   0.272514   -0.037586
  H   1.920384   -0.255377   1.000863
  H   2.004371   -0.084704   -0.810613
  H   1.161243   1.382637   0.053598

nprocshared=7
