%chk=1-CH3-C2H5-N2+-UB3LYP-aug-cc-pVDZ-Triplet.chk
%mem=400MW
%nproc=7
#p Temperature=298.15 opt freq UB3LYP/aug-cc-pVDZ

1-CH3-C2H5-N2+-UB3LYP-aug-cc-pVDZ-Triplet

1  3
  C   -0.487247   0.021906   -0.360090
  H   -0.437062   -0.059261   -1.515509
  N   0.995411   -0.000804   -0.079059
  N   2.080661   -0.022179   0.080740
  C   -0.922780   1.257553   0.252514
  H   -0.429454   2.178880   -0.262817
  H   -2.053559   1.387928   -0.090703
  H   -1.050737   1.284583   1.327617
  C   -1.048648   -1.330612   0.245343
  H   -2.126234   -1.394420   -0.167889
  H   -0.453218   -2.103770   -0.292931
  H   -1.060319   -1.245759   1.187663

nprocshared=7
