%mem=400MW
%nproc=7
#p Temperature=298.15 opt=(maxcycles=1024) SCF=(maxcycles=1024) freq UB3LYP/aug-cc-pVDZ

1H-1,2,3-Triazole-4+-UB3LYP-aug-cc-pVDZ-Singlet

1 1
C           0.03350         0.83070         0.00610
N          -2.10320         1.58010         0.09630
H          -2.90250         2.15800         0.26110
C          -0.77000         1.90120         0.38760
H          -0.47810         2.81670         0.85840
N          -2.10630         0.26720        -0.48250
N          -0.77500        -0.16970        -0.52550


nprocshared=7
