%chk=4-NO2-Ph+-UB3LYP-aug-cc-pVDZ-Singlet.chk
%mem=400MW
%nproc=7
#p Temperature=298.15 opt freq UB3LYP/aug-cc-pVDZ

4-NO2-Ph+-UB3LYP-aug-cc-pVDZ-Singlet

1 1
C          -2.02610        -0.24870        -0.56190
C          -0.64010        -0.26360        -0.66640
C           0.03970         0.86660        -0.18180
C          -0.56580         1.99680         0.39300
C          -1.95270         1.98210         0.48260
C          -2.64940         0.86670         0.00650
H          -2.61450        -1.08650        -0.91430
H          -0.10800        -1.10190        -1.09830
H           0.02150         2.83500         0.74670
H          -2.48620         2.82010         0.91340
N          -4.10810         0.86690         0.10860
O          -4.71480         0.40960        -0.87090
O          -4.57250         1.32510         1.16270


nprocshared=7
