%mem=400MW
%nproc=7
#p Temperature=298.15 opt freq UB3LYP/aug-cc-pVDZ

Continue/C13H18N6+-UB3LYP-aug-cc-pVDZ-Doublet

1  2
  C   4.587653   -0.086431   1.256059
  C   4.913328   0.713343   0.255651
  N   3.091845   -0.478904   -0.449525
  C   3.334898   -0.770376   0.789141
  N   4.050433   0.564681   -0.851114
  C   2.657649   -1.832799   1.642387
  H   3.335525   -2.748499   1.845053
  H   2.226173   -1.455666   2.467054
  H   1.862218   -2.345112   1.118833
  C   6.047408   1.767068   0.269568
  H   5.988717   2.435037   1.089450
  H   6.957641   1.078649   0.563043
  H   6.143057   2.284734   -0.497648
  C   1.990522   -0.989254   -1.213663
  H   2.117703   -2.052368   -1.293045
  H   1.929244   -0.434151   -2.257991
  C   0.546315   -0.710438   -0.431352
  H   0.375009   -1.571914   0.000924
  H   0.673368   0.187989   0.195617
  C   -0.462144   -0.315853   -1.636754
  H   -0.523137   -1.240332   -2.233556
  H   -0.340297   0.519202   -2.031219
  N   -1.896753   -0.390626   -0.914678
  C   -2.355677   0.786741   -0.418380
  C   -3.730595   0.507667   0.211282
  C   -3.820636   -0.884694   0.034775
  N   -2.592714   -1.461755   -0.610201
  C   -1.764717   2.211789   -0.513226
  H   -1.072708   2.381467   0.278574
  H   -1.227221   2.263833   -1.585298
  H   -2.495233   2.893308   -0.359511
  C   -4.880051   -1.918090   0.574183
  H   -4.998227   -1.814468   1.693205
  H   -5.881425   -1.500048   0.106462
  H   -4.874688   -2.745936   0.290916
  N   -4.614081   1.455979   0.878440
  N   -5.372037   2.112068   1.349965

nprocshared=7
