%chk=C13H18N8++-UB3LYP-aug-cc-pVDZ-Triplet.chk
%mem=400MW
%nproc=7
#p Temperature=298.15 opt freq UB3LYP/aug-cc-pVDZ

C13H18N8++-UB3LYP-aug-cc-pVDZ-Triplet

2 3
N           1.42610         0.76990         0.13610
N           2.55780         0.72140         0.24060
C           0.03350         0.83070         0.00610
C          -0.77500        -0.16970        -0.52550
N          -2.10320         1.58010         0.09630
C          -0.77000         1.90120         0.38760
N          -2.10630         0.26720        -0.48250
C          -0.34990         3.21880         1.06520
H           0.12310         3.00380         2.00060
H           0.33450         3.74320         0.43160
H          -1.21540         3.82480         1.23410
C          -0.20450        -1.51090        -1.02280
H           0.49010        -1.33070        -1.81650
H           0.29550        -2.00650        -0.21700
H          -1.00260        -2.12740        -1.38030
C          -3.27820         2.42960         0.33860
H          -3.36440         2.62880         1.38630
H          -4.15860         1.92620        -0.00240
C          -3.11770         3.75740        -0.42490
H          -2.70430         4.49690         0.22870
H          -2.46320         3.61240        -1.25880
C          -4.49430         4.22940        -0.92870
H          -5.19010         4.23150        -0.11580
H          -4.84100         3.56600        -1.69320
N          -4.37610         5.58860        -1.47590
C          -4.17160         5.90780        -2.81510
C          -4.11520         7.30340        -2.93420
C          -4.29200         7.84860        -1.61880
N          -4.45060         6.76780        -0.74020
C          -4.04480         4.81450        -3.89220
H          -3.06410         4.38840        -3.85420
H          -4.77260         4.05100        -3.71280
H          -4.20960         5.24450        -4.85810
C          -4.30510         9.34210        -1.24340
H          -3.34230         9.76690        -1.43680
H          -5.04320         9.85030        -1.82800
H          -4.53890         9.44670        -0.20450
N          -3.91280         8.06640        -4.17420
N          -3.74320         8.70600        -5.21340


nprocshared=7
