%chk=C13H18N6-UB3LYP-aug-cc-pVDZ-Doublet.chk
%mem=400MW
%nproc=7
#p Temperature=298.15 opt freq UB3LYP/aug-cc-pVDZ

C13H18N6-UB3LYP-aug-cc-pVDZ-Doublet

0  3
  C   4.463418   0.057866   1.274799
  C   4.736096   0.853174   0.054417
  N   2.991638   -0.627339   -0.501255
  C   3.373393   -0.820787   0.766484
  N   4.020068   0.406452   -1.018209
  C   2.622908   -1.675712   1.542247
  H   3.246185   -2.465853   1.945181
  H   2.376499   -1.501968   2.555626
  H   1.747362   -2.174332   1.074709
  C   6.043875   1.802316   0.574680
  H   5.953402   2.415516   0.995525
  H   6.885807   1.277423   0.551553
  H   6.239667   2.340939   -0.589261
  C   2.048502   -1.141007   -1.239402
  H   2.243434   -2.153346   -1.468029
  H   1.823582   -0.543639   -2.257370
  C   0.743620   -0.707427   -0.454772
  H   0.126522   -1.479131   0.306944
  H   0.615440   0.023848   0.234772
  C   -0.374484   -0.140712   -1.490804
  H   -0.332467   -1.011155   -2.179028
  H   -0.318113   0.471728   -1.924136
  N   -1.873383   -0.364612   -0.654478
  C   -2.252170   0.891386   -0.461490
  C   -3.490135   0.634328   0.049852
  C   -3.754493   -1.156862   0.036346
  N   -2.706420   -1.364104   -0.691691
  C   -1.758290   2.199070   -0.416701
  H   -1.004852   2.418713   0.028811
  H   -1.456442   2.122529   -1.580219
  H   -2.361067   2.912172   -0.341392
  C   -5.063619   -1.775413   0.354783
  H   -5.228411   -1.817391   1.713620
  H   -5.799204   -1.461901   0.363537
  H   -4.653755   -2.977428   0.168678
  N   -4.847017   1.303418   0.969323
  N   -5.682010   2.056668   1.315401

nprocshared=7
