%chk=C13H18N8-UB3LYP-aug-cc-pVDZ-Doublet.chk
%mem=400MW
%nproc=7
#p Temperature=298.15 opt freq UB3LYP/aug-cc-pVDZ

C13H18N8-UB3LYP-aug-cc-pVDZ-Doublet

0  3
  N   4.911756   -0.175351   1.902318
  N   5.360809   -0.440124   2.741014
  C   4.166039   0.024304   0.472684
  C   4.304286   0.967902   -0.500311
  N   2.697649   -0.354311   -1.043164
  C   2.768464   -0.579676   0.388228
  N   3.485882   0.666326   -1.470429
  C   2.152039   -2.100582   1.046849
  H   3.161885   -2.882096   1.188687
  H   1.776419   -1.338497   1.944062
  H   1.645018   -2.187339   0.500787
  C   5.621265   1.930506   -0.406846
  H   5.458570   2.495821   0.634123
  H   6.359201   1.297171   -0.597868
  H   5.790171   2.139506   -1.548790
  C   1.371055   -0.690326   -1.912080
  H   1.576203   -1.650203   -1.815775
  H   0.967050   -0.070984   -2.607303
  C   0.071795   -0.465296   -0.819703
  H   -0.229141   -1.608693   -0.080007
  H   0.131920   0.384315   -0.227198
  C   -1.289324   -0.319521   -1.651579
  H   -1.209282   -0.828907   -2.414874
  H   -1.042392   0.495355   -2.119323
  N   -2.506474   -0.120254   -0.924882
  C   -2.916799   0.712396   -0.201020
  C   -4.234461   0.302081   0.155336
  C   -4.430595   -1.080091   -0.054012
  N   -2.993920   -1.362173   -0.572990
  C   -2.350393   2.214110   -0.356686
  H   -1.425808   2.400863   0.333543
  H   -1.980818   2.109034   -1.591506
  H   -2.956055   3.020642   -0.389969
  C   -5.451029   -2.113311   0.910299
  H   -5.123253   -1.745173   1.840028
  H   -6.256846   -1.637422   0.555574
  H   -5.103814   -2.935706   0.128256
  N   -4.862804   1.334294   1.135945
  N   -5.892187   2.110323   1.972961

nprocshared=7
