%chk=Furan-2+-UB3LYP-aug-cc-pVDZ-Triplet.chk
%mem=400MW
%nproc=7
#p Temperature=298.15 opt freq UB3LYP/aug-cc-pVDZ

Furan-2+-UB3LYP-aug-cc-pVDZ-Triplet

1 3
C           0.03350         0.83070         0.00610
C          -0.77500        -0.16970        -0.52550
H          -0.37860        -1.10160        -0.87100
C          -2.10630         0.26720        -0.48250
H          -2.92030        -0.34190        -0.81600
C          -2.10320         1.58010         0.09630
H          -2.98400         2.15860         0.28190
O          -0.77000         1.90120         0.38760


nprocshared=7
