%chk=Furan-3-N2+-UB3LYP-aug-cc-pVDZ-Triplet.chk
%mem=400MW
%nproc=7
#p Temperature=298.15 opt freq UB3LYP/aug-cc-pVDZ

Furan-3-N2+-UB3LYP-aug-cc-pVDZ-Triplet

1  3
N          -1.70260         0.01917        -0.00126
N          -2.85531        -0.03082         0.00024
C          -0.37939         0.03814         0.00049
C           0.45751         1.16253         0.00064
H           0.17502         2.21152         0.00148
C           1.76806         0.65710         0.00081
H           2.72205         1.18261         0.00071
C           0.50837        -1.13792        -0.00125
H           0.33278        -2.20801         0.01289
O           1.81853        -0.67796        -0.00152


nprocshared=7
