%chk=Imidazole-4-N2+-UB3LYP-aug-cc-pVDZ-Triplet.chk
%mem=400MW
%nproc=7
#p Temperature=298.15 opt freq UB3LYP/aug-cc-pVDZ

Imidazole-4-N2+-UB3LYP-aug-cc-pVDZ-Triplet

1  3
  N   -1.500849   0.112603   -0.002864
  N   -2.862576   0.174229   0.179281
  C   -0.500218   0.043738   0.040457
  C   1.582444   -0.761017   -0.118383
  H   2.333273   -1.361773   0.153650
  N   1.940844   0.701307   -0.031378
  H   2.767487   0.967976   0.151540
  C   0.662759   1.197396   0.064200
  H   0.482858   2.120840   -0.189193
  N   0.258747   -1.009830   -0.150360

nprocshared=7
