%chk=N-O-Pyridine-3+-UB3LYP-aug-cc-pVDZ-Triplet.chk
%mem=400MW
%nproc=7
#p Temperature=298.15 opt freq UB3LYP/aug-cc-pVDZ

N-O-Pyridine-3+-UB3LYP-aug-cc-pVDZ-Triplet

1 3
C          -0.54910         0.01550        -0.97270
C           0.04280         0.83030         0.00700
C          -0.64710         1.70110         0.86750
C          -2.02890         1.75070         0.72590
H           0.04540        -0.63410        -1.60300
H          -2.61650         2.39290         1.34810
H          -0.13470         2.29570         1.59470
N          -1.93230         0.08680        -1.08920
C          -2.63870         0.94750        -0.24310
H          -3.70400         0.93110        -0.34230
O          -2.58800        -0.66810        -2.01100


nprocshared=7
