%mem=400MW
%nproc=7
#p Temperature=298.15 opt freq UB3LYP/aug-cc-pVDZ

Continue/N-O-Pyridine-2-N2-UB3LYP-aug-cc-pVDZ-Doublet

0  2
  C   0.494001   -0.313502   -0.082658
  C   -0.462762   -1.564827   -0.095124
  C   -1.718099   -1.285725   -0.088099
  N   1.842837   -0.420399   -0.023656
  N   2.872463   -0.592588   -0.017790
  H   -2.382436   -2.144041   0.014290
  H   -0.033599   -2.503322   0.068300
  C   -2.316357   0.084712   -0.075386
  H   -3.386197   0.264387   -0.039987
  C   -1.395298   1.171690   -0.043739
  H   -1.607599   2.246382   0.081013
  N   0.063153   0.931908   0.063915
  O   0.881628   1.926390   -0.090557

nprocshared=7
