%chk=Ph-N2-UB3LYP-aug-cc-pVDZ-Duplet.chk
%mem=400MW
%nproc=7
#p Temperature=298.15 opt freq UB3LYP/aug-cc-pVDZ 

Ph-N2-UB3LYP-aug-cc-pVDZ-Duplet

0  2
  C   1.629126   1.325551   0.189690
  C   -0.059448   1.180368   0.133172
  C   -0.642296   -0.035198   -0.087949
  C   -0.023935   -1.161880   -0.079469
  C   1.403014   -1.059613   0.017833
  C   2.059593   -0.125835   -0.106270
  H   1.893256   2.118889   0.136651
  H   -0.405530   2.120170   -0.044071
  N   -2.102049   0.171659   0.046750
  N   -3.276838   -0.182654   -0.186736
  H   3.242124   0.013747   0.014490
  H   1.934142   -2.006050   -0.051713
  H   -0.382096   -2.104318   -0.018721

nprocshared=7
