%chk=Pyrazole-3-N2+-UB3LYP-aug-cc-pVDZ-Triplet.chk
%mem=400MW
%nproc=7
#p Temperature=298.15 opt freq UB3LYP/aug-cc-pVDZ

Pyrazole-3-N2+-UB3LYP-aug-cc-pVDZ-Triplet

1  3
  N   -1.655096   0.105873   0.049291
  N   -2.840506   -0.082392   -0.062338
  C   -0.356627   0.061064   -0.038628
  C   0.414315   1.179989   -0.086344
  H   0.116579   2.261407   0.095950
  N   1.639896   -0.733288   0.003741
  H   2.542909   -1.417735   0.031687
  C   1.711847   0.559213   0.093313
  H   2.656466   1.088470   -0.033139
  N   0.452682   -1.066957   0.095221

nprocshared=7
