%chk=Pyrazine-2-N2-UB3LYP-aug-cc-pVDZ-Duplet.chk
%mem=400MW
%nproc=7
#p Temperature=298.15 opt freq UB3LYP/aug-cc-pVDZ 

Pyrazine-2-N2-UB3LYP-aug-cc-pVDZ-Duplet

0  2
  C   0.543917   0.006046   -0.172564
  C   -0.118078   1.298024   0.119147
  N   1.828253   -0.113914   -0.180999
  N   3.029380   0.051662   0.157258
  H   0.403108   1.966105   -0.078184
  C   -2.160750   0.146104   -0.058308
  H   -3.145468   -0.053948   -0.129755
  C   -1.468114   -0.986393   0.175522
  H   -2.097446   -2.041054   -0.046618
  N   -0.142098   -1.419278   0.086356
  N   -1.457882   1.298028   0.026064

nprocshared=7
