%chk=Pyridine-4-N2-UB3LYP-aug-cc-pVDZ-Duplet.chk
%mem=400MW
%nproc=7
#p Temperature=298.15 opt freq UB3LYP/aug-cc-pVDZ 

Pyridine-4-N2-UB3LYP-aug-cc-pVDZ-Duplet

0  2
  C   -1.337326   1.188210   -0.141028
  C   -0.098008   1.286476   -0.114506
  C   0.429613   0.126584   0.073068
  C   -0.215979   -1.042856   -0.085726
  C   -1.564994   -1.221037   0.177856
  H   -1.964312   2.266092   0.110636
  H   0.216046   2.160743   -0.181238
  N   1.786172   -0.172798   0.187616
  N   2.957521   0.074605   0.125920
  H   -2.041167   -1.871464   0.149218
  H   0.492333   -2.324232   -0.174418
  N   -2.256391   0.149603   0.011537

nprocshared=7
