%chk=Pyridine-3-N2-UB3LYP-aug-cc-pVDZ-Duplet.chk
%mem=400MW
%nproc=7
#p Temperature=298.15 opt freq UB3LYP/aug-cc-pVDZ 

Pyridine-3-N2-UB3LYP-aug-cc-pVDZ-Duplet

0  2
  C   -0.124480   -1.153131   0.077913
  C   0.682019   -0.023176   -0.084090
  C   -0.143581   1.338682   -0.006163
  C   -1.629824   1.212717   -0.190385
  H   0.374326   -2.044686   0.146162
  N   1.961831   -0.009986   0.089457
  N   3.246220   -0.144978   -0.184091
  H   -2.319543   1.881722   -0.187718
  H   0.176819   2.177248   -0.154248
  N   -1.455710   -1.305122   -0.123633
  C   -2.097350   -0.069548   0.163496
  H   -3.040176   -0.048377   0.174916

nprocshared=7
