%chk=Pyrimidine-5-N2-UB3LYP-aug-cc-pVDZ-Duplet.chk
%mem=400MW
%nproc=7
#p Temperature=298.15 opt freq UB3LYP/aug-cc-pVDZ 

Pyrimidine-5-N2-UB3LYP-aug-cc-pVDZ-Duplet

0  2
  C   0.005594   1.284197   0.058406
  C   -0.458252   0.199189   0.051478
  C   0.066617   -1.214302   -0.071358
  C   1.978007   -0.149308   -0.038732
  H   -0.421841   2.259290   -0.129690
  N   -2.094063   -0.003638   0.151988
  N   -3.107013   -0.024773   -0.037311
  H   3.145552   -0.059074   0.061582
  H   -0.353154   -2.147821   0.071937
  N   1.305195   -1.120705   0.103102
  N   1.377953   1.133841   0.039940

nprocshared=7
