%mem=400MW
%nproc=7
#p Temperature=298.15 opt freq RB3LYP/aug-cc-pVDZ

Tetrazole-5+-RB3LYP-aug-cc-pVDZ-Singlet

1  1
  N   -0.070544   0.712890   -0.061892
  N   -1.085452   0.116278   0.019087
  N   1.994112   -0.598065   -0.026762
  N   -1.902521   -0.694044   0.036766
  C   1.142174   0.247276   -0.030196
  H   -0.248992   1.775989   0.042719

nprocshared=7
