%mem=400MW
%nproc=7
#p Temperature=298.15 opt freq UB3LYP/aug-cc-pVDZ

Tetrazole-5+-UB3LYP-aug-cc-pVDZ-Singlet

1  1
  N   -0.031832   0.817222   -0.042091
  N   -1.146957   0.113400   0.029089
  N   2.019705   -0.582550   0.045692
  N   -1.937114   -0.693755   0.101117
  C   1.187234   0.119857   -0.095528
  H   -0.182804   1.754583   0.010416

nprocshared=7
